300
1x1_Mg17Al12_Phase
Mg        29.69960        6.10060        0.00000
Mg        29.69960        6.10060        3.04490
Mg        29.69960        6.10060        6.08970
Mg        29.69960        6.10060        9.13450
Mg         2.64160        7.62580        0.00000
Mg         2.64160        7.62580        3.04490
Mg         2.64160        7.62580        6.08970
Mg         2.64160        7.62580        9.13450
Mg        29.69960        9.15090        0.00000
Mg        29.69960        9.15090        3.04490
Mg        29.69960        9.15090        6.08970
Mg        29.69960        9.15090        9.13450
Mg         2.64160        1.52520        0.00000
Mg         2.64160        1.52520        3.04490
Mg         2.64160        1.52520        6.08970
Mg         2.64160        1.52520        9.13450
Mg        29.69960        3.05030        0.00000
Mg        29.69960        3.05030        3.04490
Mg        29.69960        3.05030        6.08970
Mg        29.69960        3.05030        9.13450
Mg         2.64160        4.57540        0.00000
Mg         2.64160        4.57540        3.04490
Mg         2.64160        4.57540        6.08970
Mg         2.64160        4.57540        9.13450
Mg         5.28330        6.10060        0.00000
Mg         5.28330        6.10060        3.04490
Mg         5.28330        6.10060        6.08970
Mg         5.28330        6.10060        9.13450
Mg         7.92490        7.62580        0.00000
Mg         7.92490        7.62580        3.04490
Mg         7.92490        7.62580        6.08970
Mg         7.92490        7.62580        9.13450
Mg         5.28330        9.15090        0.00000
Mg         5.28330        9.15090        3.04490
Mg         5.28330        9.15090        6.08970
Mg         5.28330        9.15090        9.13450
Mg         7.92490        1.52520        0.00000
Mg         7.92490        1.52520        3.04490
Mg         7.92490        1.52520        6.08970
Mg         7.92490        1.52520        9.13450
Mg         5.28330        3.05030        0.00000
Mg         5.28330        3.05030        3.04490
Mg         5.28330        3.05030        6.08970
Mg         5.28330        3.05030        9.13450
Mg         7.92490        4.57540        0.00000
Mg         7.92490        4.57540        3.04490
Mg         7.92490        4.57540        6.08970
Mg         7.92490        4.57540        9.13450
Mg        10.56650        6.10060        0.00000
Mg        10.56650        6.10060        3.04490
Mg        10.56650        6.10060        6.08970
Mg        10.56650        6.10060        9.13450
Mg        10.56650        6.10060       12.17930
Mg        10.56650        6.10060       15.22420
Mg        10.56650        6.10060       18.26900
Mg        10.56650        6.10060       21.31390
Mg        13.20820        7.62580        0.00000
Mg        13.20820        7.62580        3.04490
Mg        13.20820        7.62580        6.08970
Mg        13.20820        7.62580        9.13450
Mg        13.20820        7.62580       12.17930
Mg        13.20820        7.62580       15.22420
Mg        13.20820        7.62580       18.26900
Mg        13.20820        7.62580       21.31390
Mg        10.56650        9.15090        0.00000
Mg        10.56650        9.15090        3.04490
Mg        10.56650        9.15090        6.08970
Mg        10.56650        9.15090        9.13450
Mg        10.56650        9.15090       12.17930
Mg        10.56650        9.15090       15.22420
Mg        10.56650        9.15090       18.26900
Mg        10.56650        9.15090       21.31390
Mg        13.20820        1.52520        0.00000
Mg        13.20820        1.52520        3.04490
Mg        13.20820        1.52520        6.08970
Mg        13.20820        1.52520        9.13450
Mg        13.20820        1.52520       12.17930
Mg        13.20820        1.52520       15.22420
Mg        13.20820        1.52520       18.26900
Mg        13.20820        1.52520       21.31390
Mg        10.56650        3.05030        0.00000
Mg        10.56650        3.05030        3.04490
Mg        10.56650        3.05030        6.08970
Mg        10.56650        3.05030        9.13450
Mg        10.56650        3.05030       12.17930
Mg        10.56650        3.05030       15.22420
Mg        10.56650        3.05030       18.26900
Mg        10.56650        3.05030       21.31390
Mg        13.20820        4.57540        0.00000
Mg        13.20820        4.57540        3.04490
Mg        13.20820        4.57540        6.08970
Mg        13.20820        4.57540        9.13450
Mg        13.20820        4.57540       12.17930
Mg        13.20820        4.57540       15.22420
Mg        13.20820        4.57540       18.26900
Mg        13.20820        4.57540       21.31390
Mg        15.84980        6.10060        0.00000
Mg        15.84980        6.10060        3.04490
Mg        15.84980        6.10060        6.08970
Mg        15.84980        6.10060        9.13450
Mg        15.84980        6.10060       12.17930
Mg        15.84980        6.10060       15.22420
Mg        15.84980        6.10060       18.26900
Mg        15.84980        6.10060       21.31390
Mg        18.49140        7.62580        0.00000
Mg        18.49140        7.62580        3.04490
Mg        18.49140        7.62580        6.08970
Mg        18.49140        7.62580        9.13450
Mg        18.49140        7.62580       12.17930
Mg        18.49140        7.62580       15.22420
Mg        18.49140        7.62580       18.26900
Mg        18.49140        7.62580       21.31390
Mg        15.84980        9.15090        0.00000
Mg        15.84980        9.15090        3.04490
Mg        15.84980        9.15090        6.08970
Mg        15.84980        9.15090        9.13450
Mg        15.84980        9.15090       12.17930
Mg        15.84980        9.15090       15.22420
Mg        15.84980        9.15090       18.26900
Mg        15.84980        9.15090       21.31390
Mg        18.49140        1.52520        0.00000
Mg        18.49140        1.52520        3.04490
Mg        18.49140        1.52520        6.08970
Mg        18.49140        1.52520        9.13450
Mg        18.49140        1.52520       12.17930
Mg        18.49140        1.52520       15.22420
Mg        18.49140        1.52520       18.26900
Mg        18.49140        1.52520       21.31390
Mg        15.84980        3.05030        0.00000
Mg        15.84980        3.05030        3.04490
Mg        15.84980        3.05030        6.08970
Mg        15.84980        3.05030        9.13450
Mg        15.84980        3.05030       12.17930
Mg        15.84980        3.05030       15.22420
Mg        15.84980        3.05030       18.26900
Mg        15.84980        3.05030       21.31390
Mg        18.49140        4.57540        0.00000
Mg        18.49140        4.57540        3.04490
Mg        18.49140        4.57540        6.08970
Mg        18.49140        4.57540        9.13450
Mg        18.49140        4.57540       12.17930
Mg        18.49140        4.57540       15.22420
Mg        18.49140        4.57540       18.26900
Mg        18.49140        4.57540       21.31390
Mg        21.13310        6.10060        0.00000
Mg        21.13310        6.10060        3.04490
Mg        21.13310        6.10060        6.08970
Mg        21.13310        6.10060        9.13450
Mg        21.13310        6.10060       12.17930
Mg        21.13310        6.10060       15.22420
Mg        21.13310        6.10060       18.26900
Mg        21.13310        6.10060       21.31390
Mg        23.77470        7.62580        0.00000
Mg        23.77470        7.62580        3.04490
Mg        23.77470        7.62580        6.08970
Mg        23.77470        7.62580        9.13450
Mg        23.77470        7.62580       12.17930
Mg        23.77470        7.62580       15.22420
Mg        23.77470        7.62580       18.26900
Mg        23.77470        7.62580       21.31390
Mg        21.13310        9.15090        0.00000
Mg        21.13310        9.15090        3.04490
Mg        21.13310        9.15090        6.08970
Mg        21.13310        9.15090        9.13450
Mg        21.13310        9.15090       12.17930
Mg        21.13310        9.15090       15.22420
Mg        21.13310        9.15090       18.26900
Mg        21.13310        9.15090       21.31390
Mg        23.77470        1.52520        0.00000
Mg        23.77470        1.52520        3.04490
Mg        23.77470        1.52520        6.08970
Mg        23.77470        1.52520        9.13450
Mg        23.77470        1.52520       12.17930
Mg        23.77470        1.52520       15.22420
Mg        23.77470        1.52520       18.26900
Mg        23.77470        1.52520       21.31390
Mg        21.13310        3.05030        0.00000
Mg        21.13310        3.05030        3.04490
Mg        21.13310        3.05030        6.08970
Mg        21.13310        3.05030        9.13450
Mg        21.13310        3.05030       12.17930
Mg        21.13310        3.05030       15.22420
Mg        21.13310        3.05030       18.26900
Mg        21.13310        3.05030       21.31390
Mg        23.77470        4.57540        0.00000
Mg        23.77470        4.57540        3.04490
Mg        23.77470        4.57540        6.08970
Mg        23.77470        4.57540        9.13450
Mg        23.77470        4.57540       12.17930
Mg        23.77470        4.57540       15.22420
Mg        23.77470        4.57540       18.26900
Mg        23.77470        4.57540       21.31390
Mg        26.41640        6.10060        0.00000
Mg        26.41640        6.10060        3.04490
Mg        26.41640        6.10060        6.08970
Mg        26.41640        6.10060        9.13450
Mg        26.41640        6.10060       12.17930
Mg        26.41640        6.10060       15.22420
Mg        26.41640        6.10060       18.26900
Mg        26.41640        6.10060       21.31390
Mg        29.05800        7.62580        0.00000
Mg        29.05800        7.62580        3.04490
Mg        29.05800        7.62580        6.08970
Mg        29.05800        7.62580        9.13450
Mg        29.05800        7.62580       12.17930
Mg        29.05800        7.62580       15.22420
Mg        29.05800        7.62580       18.26900
Mg        29.05800        7.62580       21.31390
Mg        26.41640        9.15090        0.00000
Mg        26.41640        9.15090        3.04490
Mg        26.41640        9.15090        6.08970
Mg        26.41640        9.15090        9.13450
Mg        26.41640        9.15090       12.17930
Mg        26.41640        9.15090       15.22420
Mg        26.41640        9.15090       18.26900
Mg        26.41640        9.15090       21.31390
Mg        29.05800        1.52520        0.00000
Mg        29.05800        1.52520        3.04490
Mg        29.05800        1.52520        6.08970
Mg        29.05800        1.52520        9.13450
Mg        29.05800        1.52520       12.17930
Mg        29.05800        1.52520       15.22420
Mg        29.05800        1.52520       18.26900
Mg        29.05800        1.52520       21.31390
Mg        26.41640        3.05030        0.00000
Mg        26.41640        3.05030        3.04490
Mg        26.41640        3.05030        6.08970
Mg        26.41640        3.05030        9.13450
Mg        26.41640        3.05030       12.17930
Mg        26.41640        3.05030       15.22420
Mg        26.41640        3.05030       18.26900
Mg        26.41640        3.05030       21.31390
Mg        29.05800        4.57540        0.00000
Mg        29.05800        4.57540        3.04490
Mg        29.05800        4.57540        6.08970
Mg        29.05800        4.57540        9.13450
Mg        29.05800        4.57540       12.17930
Mg        29.05800        4.57540       15.22420
Mg        29.05800        4.57540       18.26900
Mg        29.05800        4.57540       21.31390
Mg        29.30840        6.72870       11.78620
Mg        29.29080        6.12560       11.73020
Mg         6.61480        0.38750       15.14300
Mg         3.00410        3.99830       15.14300
Mg         3.00410        0.38750       18.75380
Mg         1.39660        7.93090       13.53550
Mg         1.08520        5.91710       17.37370
Mg         9.60240        0.69890       15.45440
Mg         1.08520        2.61820       20.67260
Mg         8.53360        7.61960       17.37370
Mg         5.23470        7.61960       20.67260
Mg         3.31540        0.69890       21.74140
Mg         5.23470        5.91710       13.22420
Mg         8.53360        2.61820       13.22420
Mg         1.08520        7.61960       16.52310
Mg         4.38420        7.61960       13.22420
Mg         1.08520        1.76760       13.22420
Mg         4.80940        2.19290       16.94840
Mg         1.39660        5.60580       20.36130
Mg         8.22230        7.93090       20.36130
Mg         8.22230        5.60580       13.53550
Mg         6.61480        3.99830       18.75380
Mg         6.30350        0.69890       12.15550
Mg         4.38420        5.91710       20.67260
Mg         6.30350        6.55080       15.45440
Mg         3.31540        3.68690       12.15550
Mg         0.01650        3.68690       15.45440
Mg         8.53360        1.76760       20.67260
Mg         8.53360        5.91710       16.52310
Mg         0.01650        0.69890       18.44250
Mg         3.31540        6.55080       18.44250
Mg         6.30350        3.68690       21.74140
Mg         9.60240        3.68690       18.44250
Al         9.08300        7.07020       14.61310
Al         7.14480        7.07020       12.67480
Al         9.08300        9.00850       12.67480
Al         0.53580        6.46650       14.61310
Al         2.47410        6.46650       12.67480
Al         0.53580        4.52820       12.67480
Al         0.53580        7.07020       19.28380
Al         2.47410        7.07020       21.22200
Al         0.53580        9.00850       21.22200
Al         3.86480        1.24830       14.06550
Al         1.92650        1.24830       16.00380
Al         3.86480        8.46090       16.00380
Al         3.86480        3.13750       19.83130
Al         1.92650        3.13750       17.89310
Al         3.86480        5.07580       17.89310
Al         5.75410        1.24830       19.83130
Al         7.69230        1.24830       17.89310
Al         5.75410        8.46090       17.89310
Al         5.75410        3.13750       14.06550
Al         7.69230        3.13750       16.00380
Al         5.75410        5.07580       16.00380
Al         9.08300        6.46650       19.28380
Al         7.14480        6.46650       21.22200
Al         9.08300        4.52820       21.22200
O          8.23520        4.55940       23.88230
H          7.27990        4.50830       24.17360
H          8.83210        4.46800       24.67940
