63
 generated by VMD
 C         2.267540        0.620630        2.603100
 C         3.109180        0.220080        1.639590
 C         1.399110       -0.333560        3.326400
 C         3.222750       -1.203310        1.239970
 C         3.358370       -1.512340       -0.191910
 C         3.366710        1.322670        0.709160
 C         3.491580        1.004260       -0.728430
 C         3.473870       -0.403320       -1.178300
 C        -0.427100        1.455960        3.305170
 C         0.505660        2.430680        2.709860
 C         0.023460        0.079480        3.630750
 C         1.894340        2.024040        2.402160
 C         2.548110        2.454520        1.163180
 C        -0.242860        3.243730        1.738420
 C         0.402750        3.659890        0.466050
 C         1.794960        3.264160        0.179750
 C        -2.188210       -0.851530        2.753610
 C        -2.632710        0.511880        2.428990
 C        -0.854720       -1.068490        3.358620
 C        -1.750210        1.669430        2.707880
 C        -1.637100        2.768360        1.736980
 C        -3.394520        0.454300        1.174740
 C        -3.271410        1.554370        0.190460
 C        -2.399270        2.706810        0.470310
 C        -0.496550       -3.092000        1.839060
 C        -1.821450       -2.877450        1.237180
 C        -0.015160       -2.189260        2.907620
 C        -2.674680       -1.754930        1.698880
 C        -3.422250       -0.946850        0.721130
 C        -1.718040       -3.182070       -0.197560
 C        -2.469080       -2.368880       -1.181620
 C        -3.319000       -1.256190       -0.725190
 C         2.309630       -2.182770        1.844080
 C         1.837370       -3.076520        0.780180
 C         1.381610       -1.738870        2.906530
 C         0.425250       -3.530640        0.778590
 C        -0.329300       -3.582120       -0.479480
 C         2.486140       -2.667460       -0.478320
 C         1.721020       -2.717630       -1.746740
 C         0.320710       -3.173530       -1.745070
 C        -2.268470       -0.598970       -2.756140
 C        -1.820790       -1.960600       -2.436300
 C        -0.423560       -2.364190       -2.718260
 C        -1.324340        0.366480       -3.360860
 C        -2.234470        2.206420       -1.844850
 C        -3.170100        1.246490       -1.241070
 C        -3.191300       -0.161550       -1.700280
 C        -1.308400        1.763270       -2.908740
 C         0.564860        3.142730       -1.852310
 C        -0.355290        3.588720       -0.793720
 C        -1.760250        3.113010       -0.789570
 C         0.085190        2.226490       -2.911080
 C         2.264050        0.900700       -2.758710
 C         2.743270        1.807740       -1.706390
 C         1.890850        2.936910       -1.252000
 C         0.930930        1.113200       -3.362780
 C         0.512940       -1.405540       -3.319640
 C         1.837760       -1.621270       -2.720700
 C         2.716850       -0.462070       -2.436960
 C         0.059630       -0.035160       -3.641440
 O        -0.618710       -0.344110        0.085930
 O         0.655600       -0.349660       -0.211410
 O         0.056570        0.777260        0.079770
