129
Nb
Nb    4.580711    6.597514    6.637172
Nb    4.992636    6.620708    9.938047
Nb    4.986434    6.645972    0.013664
Nb    4.928394    6.636730    3.244657
Nb    4.958205    9.982797    6.619386
Nb    5.004814    9.947342    9.930132
Nb    5.001529    9.931625    0.043468
Nb    5.001331   13.234548    9.926258
Nb    5.013210   13.200542    0.011583
Nb    5.031843   13.194352    3.289593
Nb    4.944994    3.294758    6.619217
Nb    4.999887    3.311489    9.938882
Nb    5.008497    3.325100   13.231606
Nb    4.975359    3.322542    3.294572
Nb    8.699492    6.567269    6.636413
Nb    8.299939    6.602951    0.017521
Nb    8.307411    9.907428    9.936946
Nb    8.279762    9.946992    0.010465
Nb    8.290211    9.961570    3.257045
Nb    8.287988    0.030510    9.947237
Nb    8.346356    3.283149    6.625353
Nb    8.312220    3.294140    0.003530
Nb    8.336647    3.324563    3.272772
Nb   11.737544    6.593711    6.590543
Nb   11.638195    6.617508    9.958969
Nb   11.608928    6.603529    0.029097
Nb   11.635811    6.577127    3.285691
Nb   11.655398    9.959685    6.613397
Nb   11.652759    9.918370    9.934785
Nb   11.625149    9.900922    0.010415
Nb   11.647902    9.923292    3.299358
Nb   11.620042    0.028267    9.913149
Nb   11.619270    0.016589    0.009810
Nb   11.603863    0.021509    3.320099
Nb   11.668101    3.305566    6.582232
Nb   11.620891    3.312150    9.922022
Nb   11.611685    3.318245    0.030709
Nb    1.556807    6.600879    6.588335
Nb    1.652115    6.618050    9.957545
Nb    1.647666    6.602489    3.281421
Nb    1.663486    9.937846    6.605726
Nb    1.671829    9.925808    9.929508
Nb    1.709316    9.913184    0.027536
Nb    1.714050    9.894082    3.282835
Nb    1.686039    0.015147    6.618403
Nb    1.678335    0.009680    9.929662
Nb    1.653605    0.010284    3.299925
Nb    1.631516    3.307594    6.577167
Nb    1.656802    3.316927    9.922296
Nb    6.659937    8.220699    8.229938
Nb    6.643731    8.284099   11.553492
Nb    6.668701    8.267033    1.660731
Nb    6.650792   11.572341    8.298600
Nb    6.671084   11.590328   11.583801
Nb    6.645769   11.559840    4.942888
Nb    6.615892    1.652235   11.577666
Nb    6.612968    1.663271    1.663956
Nb    6.644937    5.000211    8.213408
Nb    6.657010    4.969749   11.571619
Nb    6.651755    4.950073    1.668732
Nb    6.653752    4.970324    5.004595
Nb    9.959972    8.272616   11.586233
Nb    9.966357    8.267214    1.655398
Nb    9.945825   11.549338    8.352408
Nb    9.990343   11.574480    1.622924
Nb    9.957827   11.537147    4.905370
Nb    9.903129    1.683291    8.297310
Nb    9.978305    1.656608   11.604146
Nb    9.992443    1.678638    1.667052
Nb    9.930339    1.704049    4.898258
Nb   10.046070    4.950549    8.312415
Nb   10.053432    4.927236    4.910634
Nb   13.278821    8.288538    8.282070
Nb   13.274381    8.312830   11.567865
Nb   13.258994    8.286603    1.677133
Nb   13.275553    8.280215    4.935345
Nb    0.054520   11.568494    8.308061
Nb   13.286963   11.587048    1.641260
Nb    0.053770   11.568523    4.935169
Nb    0.050641    1.676117    8.290191
Nb    0.040216    1.656870   11.606557
Nb    0.003502    1.673649    1.648570
Nb    0.023823    1.678940    4.920995
Nb    0.008470    4.950331    8.286277
Nb   13.262681    4.913770   11.594992
Nb   13.253935    4.909878    1.656500
Nb    3.263557    8.306641    8.310430
Nb    3.271931    8.294397    4.938837
Nb    3.341342   11.589715    8.273015
Nb    3.322829   11.587379   11.578700
Nb    3.323411   11.615419    1.644625
Nb    3.330032   11.608725    4.960009
Nb    3.349954    1.659819    8.272445
Nb    3.261248    4.934277    8.311272
Nb    3.341662    4.910423   11.581981
Nb    3.335812    4.901363    1.644277
Nb    3.258038    4.928170    4.928604
Zr    1.695689    6.624967    0.017492
Zr    6.663964    8.190196    5.027665
Zr   11.580399    0.010373    6.621435
Ta   13.274626   11.593070   11.591815
Ta   10.019591    8.290160    4.939938
Ta    5.034638   13.225130    6.613678
Ta    9.976019    4.971253   11.614470
Ta    3.348415    1.647168    4.926242
Ta    1.619476    3.335317    3.319821
Ta    8.325321    6.603492    9.943057
Ta    3.302323    1.677561   11.624685
Ta    8.305258    3.330564    9.951707
Ta    8.347853    9.995375    6.649159
Ta    8.289252   13.211702    6.587181
Ta    3.382254    8.317077   11.548393
Ta    8.288325   13.217012    3.274533
Ta    8.290373   13.226383    0.041402
Ta    9.998426   11.583549   11.595048
Ta    3.301396    1.669776    1.640859
Ta   10.043355    8.293293    8.290874
Ta    6.637077    1.687585    8.263859
Ta    6.624524    1.703302    4.952411
Ta    4.972866    9.944009    3.237055
Ta    1.669818   13.217984    0.005094
Ta    8.383700    6.553671    3.242327
 W    9.988440    4.936900    1.648946
 W    3.365265    8.296729    1.659849
 W   11.645828    3.344318    3.304461
 W    1.656537    3.302382    0.019758
 W   13.265522    4.934488    4.913986
 W    6.653660   11.582587    1.643135
 O    6.639848    6.582928    6.628532
