55
Nb14TiHfTaZr
  Nb    9.911773    9.925362    0.051576
  Nb    0.131962    9.926186    3.362592
  Nb    0.045037    0.168513    6.719448
  Nb    0.034112    3.399144   10.053705
  Nb    3.386924    0.010770    0.003155
  Nb    0.080258    3.389253    3.433528
  Nb    3.328999    9.990781    3.419102
  Nb    1.678117    1.675531    4.959110
  Nb    9.948149    6.630252    0.062372
  Nb    3.308406    3.314885   10.051355
  Nb    1.648099    4.942313    1.682319
  Nb    0.026157    6.661994    3.332643
  Nb    4.922018    1.682635    1.646054
  Nb    3.369565    3.382177    3.364038
  Nb    1.684571    5.042526    5.011824
  Nb    0.009342    6.559131    6.736179
  Nb    4.944649    1.690786    5.044663
  Nb    3.275441    3.273182    6.748266
  Nb    1.689248    5.047423    8.441207
  Nb    6.530078    0.048932    6.800548
  Nb    4.951316    1.647421    8.449324
  Nb    3.299931    6.665403    0.008770
  Nb    1.687205    8.339742    1.685230
  Nb    6.672135    3.307592   10.019180
  Nb    4.996727    4.992533    1.315768
  Nb    3.352808    6.624012    3.361072
  Nb    1.655492    8.334024    5.064908
  Nb    6.563036    3.429032    3.401080
  Nb    4.954536    5.050277    5.435076
  Nb    3.306819    6.736846    6.720723
  Nb    4.977232    5.035071    8.417084
  Nb    8.339692    1.619468    8.553187
  Nb    6.696775    6.702314   -0.016593
  Nb    8.329837    4.953261    1.691927
  Nb    6.592182    6.611707    3.344748
  Nb    4.975667    8.306433    5.088482
  Nb    8.327459    5.096916    4.995197
  Nb    6.653335    6.706458    6.831049
  Nb    4.962233    8.341763    8.441531
  Nb    8.332838    5.071574    8.497601
  Nb    8.329387    8.275489    1.690086
  Nb    8.312146    8.338622    8.407000
  Ti    1.668400    1.667416    1.660583
  Ti    3.370209    0.066245    6.657155
  Ti    8.401827    1.632364    4.900028
  Hf    0.007307    3.339351    6.734115
  Hf    8.393252    1.729748    1.737835
  Hf    1.638262    8.379476    8.386631
  Ta    1.683055    1.611181    8.505064
  Ta    6.632074    9.957465    0.036498
  Ta    4.931016    8.289638    1.656810
  Zr    6.572351   -0.010368    3.330261
  Zr    6.751016    3.280563    6.771584
  Zr    8.334819    8.360865    5.137480
   O    4.960363    5.012344    3.373268
