257
Water_Monolayer
Mg         1.26370        1.13960       10.39870
Mg         4.60390        1.28780       10.60410
Mg         7.71630        1.35340       10.52120
Mg        -0.24970        4.08310       10.34410
Mg        -2.09470        6.71670       10.62950
Mg         2.90390        3.93020       10.41770
Mg         1.22140        6.85710       10.67980
Mg         5.94400        4.27630       10.46480
Mg         4.67060        6.88780       10.37560
Mg        -8.65300       16.51640       12.89870
Mg        -8.52590       16.84030       18.34100
Mg         1.24680        1.33440       15.54680
Mg         1.20730        1.34460       21.11460
Mg        -5.29090       16.71160       13.01510
Mg        -5.16370       16.73800       18.33080
Mg        -2.20590       16.60250       13.00660
Mg        -2.11730       16.84400       18.27250
Mg         4.43260        1.15490       15.60950
Mg         4.36930        1.24830       20.73010
Mg         7.83640        1.50300       15.48530
Mg         7.84090        1.34040       20.64570
Mg        -0.27020        2.38620       13.02800
Mg        -0.29390        2.32190       18.17080
Mg        -1.89480        4.97870       12.95050
Mg        -2.08270        4.96230       18.02850
Mg        -0.22050        4.11120       15.33180
Mg        -0.30030        4.24640       20.71070
Mg        -1.94850        6.85560       15.66640
Mg        -1.91970        7.12820       20.92900
Mg         2.76790        2.12250       12.95710
Mg         2.71340        2.26050       18.08180
Mg         1.37120        5.05510       12.98360
Mg         1.19480        5.23750       18.25780
Mg         6.11680        2.37080       13.16670
Mg         5.94720        2.33710       18.15020
Mg         4.43500        5.05840       13.05220
Mg         4.28820        4.91000       18.21950
Mg         2.81830        4.02590       15.64120
Mg         2.72280        4.19280       20.89670
Mg         1.34150        7.05400       15.67600
Mg         1.25230        7.08540       20.75570
Mg         5.98930        4.23320       15.59100
Mg         6.06310        4.14670       20.55430
Mg         4.60210        6.89010       15.62570
Mg         4.47470        6.90750       20.71170
O          4.67490        8.50460       24.49640
H          5.39180        7.85270       24.39340
H          4.84330        8.92470       25.41190
O          0.44900        4.65800       24.38080
H          0.80650        3.94540       24.93300
H         -0.10570        5.28140       24.96440
H          9.10610        0.19540       25.13890
O          4.68520        3.46430       24.33940
H          3.82140        3.34540       24.82810
H          5.01180        2.51620       24.50360
H          2.10210        2.49650       24.88170
Mg        10.67200        1.00450       10.57630
Mg        14.19580        1.09510       10.34730
Mg        17.32900        1.20750       10.39410
Mg         9.35340        3.93650       10.35950
Mg         7.69040        6.84540       10.39700
Mg        12.57060        3.98810       10.48850
Mg        10.81420        6.87910       10.45070
Mg        15.71080        4.10470       10.42500
Mg        14.04090        6.89390       10.51040
Mg         0.97800       16.40340       12.98680
Mg         0.86960       16.49910       18.34300
Mg        10.82190        1.23200       15.70250
Mg        11.05730        1.37710       20.88160
Mg         4.10160       16.56840       13.05060
Mg         4.39670       16.67230       18.33500
Mg         7.49530       16.59880       13.04930
Mg         7.38330       16.60750       18.06270
Mg        14.00020        1.27130       15.59630
Mg        14.31700        1.26480       20.79100
Mg        17.31240        1.33350       15.47110
Mg        17.37300        1.41140       20.75240
Mg         9.28810        2.21110       13.05930
Mg         9.66090        2.38670       18.10680
Mg         7.68010        4.86220       13.12070
Mg         7.70810        4.83910       17.87950
Mg         9.52340        4.35350       15.44770
Mg         9.17510        4.13490       20.75790
Mg         7.69420        6.88380       15.50890
Mg         7.77040        6.87040       20.76710
Mg        12.44080        2.13180       13.06340
Mg        12.56610        2.49750       18.17990
Mg        10.76370        5.02770       12.58690
Mg        10.74330        5.29910       18.21450
Mg        15.78530        2.09620       12.74070
Mg        15.88680        2.23350       18.07340
Mg        14.15510        4.89150       13.00640
Mg        14.08790        5.08960       18.12570
Mg        12.42030        4.07920       15.46680
Mg        12.59340        4.06660       20.62340
Mg        10.97910        7.14390       15.53650
Mg        11.01450        6.81180       20.85850
Mg        15.49010        3.83390       15.52480
Mg        15.81140        4.15430       20.80260
Mg        14.22630        6.76460       15.52780
Mg        14.12440        6.92050       20.76580
O         12.06500        5.67930       24.96030
H         12.11850        5.47390       25.94530
H         11.29840        6.20600       24.71660
O         14.10460        2.10750       24.61100
H         14.63420        2.76280       25.18470
H         14.71020        1.32280       24.38590
O          5.99630        6.02170       24.23610
H          5.71870        5.15270       24.62330
H          6.95140        6.19750       24.28660
O         15.47840        6.09800       24.43720
H         14.92710        6.92000       24.53820
H         14.89400        5.38500       24.80730
O         11.44620        2.56980       24.69840
H         11.59510        3.55250       24.83040
H         12.40720        2.29340       24.80640
O          0.75510        8.47670       25.25090
H          0.56080        8.90780       26.08670
H          1.61680        8.05680       25.24460
O          9.91110        0.37390       24.46620
H         10.70660        0.89040       24.58340
O          8.44730        3.53440       24.53000
H          9.24960        3.02150       24.70460
H          7.76760        3.26840       25.14630
O          2.48130        2.50130       25.91860
H          2.84980        1.57420       26.08030
Mg        -3.52960        9.60570       10.38340
Mg        -0.30020        9.60670       10.84790
Mg         2.99790        9.65600       10.80650
Mg        -5.15660       12.38590       10.61840
Mg        -6.81020       14.99110       10.67690
Mg        -2.10730       12.35290       10.52610
Mg        -3.57610       15.06420       10.55420
Mg         1.27140       12.39370       10.75310
Mg        -0.36220       15.02820       10.56020
Mg        -3.53580        7.84900       12.96340
Mg        -3.42950        7.80790       18.22140
Mg        -3.56160        9.64740       15.46110
Mg        -3.63410        9.79520       20.98010
Mg        -0.37940        7.74920       13.29090
Mg        -0.44370        8.09340       18.22030
Mg         2.95060        7.82220       13.20900
Mg         3.05780        7.61810       18.26460
Mg        -0.46230        9.60370       15.52400
Mg        -0.32170        9.81340       20.94690
Mg         2.61750        9.81950       15.82860
Mg         2.88860        9.77210       21.24400
Mg        -5.03620       10.64890       12.86220
Mg        -5.01870       10.73250       18.04680
Mg        -6.50720       13.38780       13.26470
Mg        -6.61520       13.44980       18.22740
Mg        -5.07520       12.42500       15.52840
Mg        -5.00460       12.62420       21.00080
Mg        -6.73390       15.25560       15.69470
Mg        -6.64210       15.24920       20.83810
Mg        -1.96820       10.44890       13.01770
Mg        -1.80540       10.47290       18.08610
Mg        -3.35030       13.56060       13.17600
Mg        -3.57470       13.65260       18.29680
Mg         1.45880       10.63310       13.35120
Mg         1.27560       10.65570       18.59640
Mg        -0.33800       13.35670       13.18550
Mg        -0.34110       13.39480       18.24980
Mg        -1.85100       12.37350       15.55710
Mg        -1.86780       12.70500       20.91830
Mg        -3.58930       15.24380       15.60390
Mg        -3.52720       15.23100       20.96850
Mg         1.11060       12.51970       15.88480
Mg         1.49970       12.57920       21.18980
Mg        -0.47340       15.28300       15.44540
Mg        -0.16140       15.29520       21.27060
O          2.71680        6.75480       24.09380
H          2.61310        6.15270       24.82340
H          3.58060        7.28810       24.25280
O          2.73320       11.01330       25.02240
H          3.13400       10.49860       25.78250
H          1.92440       10.49480       24.81290
O         -1.32920        6.21750       26.05120
H         -1.63560        7.05250       25.62610
H         -1.96410        5.49010       25.81130
O         -0.86180       11.48510       25.44230
H         -1.31650       12.30780       25.15970
O         -4.46840       11.42250       24.51650
H         -5.28660       11.98040       24.46780
H         -4.50060       11.12910       25.51460
O         -2.38710        9.02300       25.26340
H         -1.90910        9.89340       25.47410
H         -3.32270        9.09730       25.59370
O          1.69760       13.53320       25.17500
H          1.74510       12.58070       25.39350
H          0.89310       14.00540       25.55980
O          5.95590       11.71230       24.94090
H          5.20910       11.18330       24.60850
Mg         6.11820        9.60760       10.67670
Mg         9.23580        9.82400       10.46450
Mg        12.38400        9.45410       10.53380
Mg         4.31660       12.30730       10.64740
Mg         2.85680       15.11160       10.24500
Mg         7.67830       12.49830       10.43960
Mg         5.87640       15.01860       10.28110
Mg        10.84370       12.48700       10.39740
Mg         9.37270       15.17740       10.39040
Mg         6.40820        7.77910       12.94460
Mg         6.08830        7.60020       18.16460
Mg         6.25490        9.58640       15.66450
Mg         6.12670        9.66330       20.88260
Mg         9.22770        7.83120       13.14380
Mg         9.19430        7.90660       18.27800
Mg        12.41500        7.80770       12.93520
Mg        12.51710        7.68440       18.26130
Mg         9.40540        9.76250       15.54830
Mg         9.42510        9.59680       20.74960
Mg        12.54900        9.63500       15.54800
Mg        12.57480        9.54000       20.69110
Mg         4.52270       10.70280       13.07760
Mg         4.60050       10.61620       18.17690
Mg         2.92960       13.52780       13.41480
Mg         2.84340       13.34220       18.33550
Mg         4.51840       12.21710       15.74060
Mg         4.62700       12.44770       20.95300
Mg         2.71660       15.16120       15.92080
Mg         2.97360       15.32960       21.00640
Mg         7.71770       10.89140       13.04200
Mg         7.87710       10.53740       18.28610
Mg         6.10430       13.53890       13.19310
Mg         6.19210       13.17600       18.09330
Mg        10.89520       10.77310       13.09220
Mg        11.02380       10.43970       18.03820
Mg         9.38860       13.56090       13.20940
Mg         9.54690       13.62790       18.05000
Mg         7.91070       12.53670       15.55530
Mg         7.78650       12.36410       20.73110
Mg         6.01520       15.17390       15.54490
Mg         6.14270       15.07730       20.69430
Mg        11.05600       12.42220       15.59860
Mg        11.08900       12.46540       20.69750
Mg         9.31900       15.37950       15.57950
Mg         9.50720       15.30710       20.77920
O          6.77450       14.22320       24.15650
H          6.51440       15.17500       24.34950
H          6.07590       13.60250       24.53520
O          8.66650        6.70140       24.29680
H          8.83750        6.62320       25.26730
H          8.96190        7.64030       24.14190
O          7.60540        9.75440       24.31340
H          7.32560        9.14110       25.04100
H          7.03200       10.54760       24.52620
O         10.84000        8.77410       24.64260
H         10.58520        9.74010       24.60580
H         11.06320        8.56100       25.55260
O          9.89410       11.53750       24.40290
H         10.21220       11.98300       25.23980
H          9.00590       11.12320       24.61010
H         -0.48740       11.44330       26.41910
O         -3.82820       14.71190       25.10150
H         -3.38380       15.59720       25.42700
H         -3.64350       13.56480       25.69650
