586
single_slab P1
Mg         1.25580       -0.75020        7.64460
Mg         1.26370        1.13960       10.39870
Mg         4.45900       -0.75360        8.12280
Mg         7.50510       -0.52920        7.95450
Mg         4.60390        1.28780       10.60410
Mg         7.71630        1.35340       10.52120
Mg        -0.23270        2.34070        8.02060
Mg        -1.91030        5.07520        7.73110
Mg        -0.24970        4.08310       10.34410
Mg        -2.09470        6.71670       10.62950
Mg         2.99290        2.11040        7.57650
Mg         1.24220        5.04100        7.61840
Mg         6.06100        2.20230        8.10180
Mg         4.19430        4.87710        7.77900
Mg         2.90390        3.93020       10.41770
Mg         1.22140        6.85710       10.67980
Mg         5.94400        4.27630       10.46480
Mg         4.67060        6.88780       10.37560
Mg         1.24700       -0.63090       12.89870
Mg         1.37410       -0.30700       18.34100
Mg         1.24680        1.33440       15.54680
Mg         1.20730        1.34460       21.11460
Mg         4.60910       -0.43570       13.01510
Mg         4.73630       -0.40930       18.33080
Mg         7.69410       -0.54480       13.00660
Mg         7.78270       -0.30330       18.27250
Mg         4.43260        1.15490       15.60950
Mg         4.36930        1.24830       20.73010
Mg         7.83640        1.50300       15.48530
Mg         7.84090        1.34040       20.64570
Mg        -0.27020        2.38620       13.02800
Mg        -0.29390        2.32190       18.17080
Mg        -1.89480        4.97870       12.95050
Mg        -2.08270        4.96230       18.02850
Mg        -0.22050        4.11120       15.33180
Mg        -0.30030        4.24640       20.71070
Mg        -1.94850        6.85560       15.66640
Mg        -1.91970        7.12820       20.92900
Mg         2.76790        2.12250       12.95710
Mg         2.71340        2.26050       18.08180
Mg         1.37120        5.05510       12.98360
Mg         1.19480        5.23750       18.25780
Mg         6.11680        2.37080       13.16670
Mg         5.94720        2.33710       18.15020
Mg         4.43500        5.05840       13.05220
Mg         4.28820        4.91000       18.21950
Mg         2.81830        4.02590       15.64120
Mg         2.72280        4.19280       20.89670
Mg         1.34150        7.05400       15.67600
Mg         1.25230        7.08540       20.75570
Mg         5.98930        4.23320       15.59100
Mg         6.06310        4.14670       20.55430
Mg         4.60210        6.89010       15.62570
Mg         4.47470        6.90750       20.71170
O          6.12730        5.82530       21.51560
H          6.08090        5.62860       22.46050
O         -0.18290        5.99710       21.74500
H         -0.06190        5.81190       22.76300
O          2.84420        5.99840       21.51280
H          2.71150        6.18990       22.50470
O          9.39650        0.62450       21.81450
H          9.49000        0.71150       22.82900
O          7.57560        3.10440       21.62050
H          7.71860        3.24510       22.56970
O          2.87110        0.39890       21.84460
H          2.98260        0.71740       22.79300
O          1.05960        3.27060       21.79350
H          1.03250        3.37900       22.81060
O          6.25440        0.48110       21.67060
H          6.32530        0.42700       22.63350
O          4.33060        3.12290       21.50400
H          4.29990        3.30080       22.44490
O          0.83680       10.20440       27.42920
H          0.99850        9.45570       28.07430
H          1.46840       10.94890       27.45610
O          4.67490        8.50460       24.49640
H          5.39180        7.85270       24.39340
H          4.84330        8.92470       25.41190
O          0.44900        4.65800       24.38080
H          0.80650        3.94540       24.93300
H         -0.10570        5.28140       24.96440
O          0.44270        7.63160       28.13470
H          0.17410        7.21510       27.27210
H         -0.32190        7.38950       28.77080
O          3.62060        5.70140       31.50330
H          3.80670        5.01920       32.22700
H          4.20700        5.29970       30.83460
O          6.34540       -0.06450       24.58860
H          6.87600        0.28850       25.35960
H          6.56380       -0.99750       24.48650
O          4.68520        3.46430       24.33940
H          3.82140        3.34540       24.82810
H          5.01180        2.51620       24.50360
O          2.75110        5.22630       26.58900
H          2.55570        5.10310       27.52620
H          3.75540        5.13930       26.61230
O          7.22960        3.63080       27.65910
H          7.24000        3.46130       28.63390
H          8.08210        4.15300       27.57190
O          0.21820        3.45320       28.36910
H         -0.17770        4.37520       28.59160
H          0.06340        3.33870       27.43430
O          3.77960        0.22430       31.84000
H          2.95560        0.02750       32.33990
H          3.25640        0.50910       31.03840
O          7.09880        1.82260       30.31850
H          6.24890        1.30940       30.26080
H          7.34400        2.03070       31.26300
O          5.45380        4.35450       29.91840
H          6.15210        4.10610       30.51510
H          4.80560        3.60560       29.76890
O          9.91610        6.83130       34.19650
H          9.43490        5.95660       34.33260
H         10.64580        6.65550       34.81860
O          8.07770        9.64300       33.62430
H          7.68690        8.71630       33.63040
H          8.75720        9.71360       34.35800
O         10.48270       13.05550       31.43530
H         11.43410       12.69950       31.51640
H          9.96580       12.44820       30.85540
O          3.92290        3.23410       32.75890
H          3.61710        3.09020       33.69900
H          4.26110        2.40820       32.42010
O          1.58900       -0.58870       33.29470
H          1.56890        0.24610       33.78980
H          0.63040       -0.65740       33.05310
O          6.03530       11.72920       33.79080
H          6.28100       12.29470       33.02900
H          6.81680       11.13530       33.98270
O          1.91480        2.24040       34.67270
H          1.60870        2.08870       35.58160
H          1.21750        2.66590       34.12280
O          2.39540       -1.34990       27.37030
H          1.91450       -2.18630       27.15270
H          2.51560       -1.51870       28.33800
O          6.76700        7.15660       33.50650
H          7.13290        6.30800       33.62810
H          6.32420        7.30370       32.67650
Mg        10.78530       -0.59770        7.62650
Mg        10.67200        1.00450       10.57630
Mg        13.97250       -0.77620        7.43900
Mg        17.30090       -0.59030        7.88010
Mg        14.19580        1.09510       10.34730
Mg        17.32900        1.20750       10.39410
Mg         9.28720        2.12360        7.91380
Mg         7.75520        4.96490        7.90980
Mg         9.35340        3.93650       10.35950
Mg         7.69040        6.84540       10.39700
Mg        12.51430        1.87650        8.19290
Mg        11.14460        4.89300        7.55550
Mg        15.67690        2.26550        7.62940
Mg        14.14710        4.87530        7.70450
Mg        12.57060        3.98810       10.48850
Mg        10.81420        6.87910       10.45070
Mg        15.71080        4.10470       10.42500
Mg        14.04090        6.89390       10.51040
Mg        10.87800       -0.74390       12.98680
Mg        10.76960       -0.64820       18.34300
Mg        10.82190        1.23200       15.70250
Mg        11.05730        1.37710       20.88160
Mg        14.00160       -0.57890       13.05060
Mg        14.29670       -0.47500       18.33500
Mg        17.39530       -0.54850       13.04930
Mg        17.28330       -0.53980       18.06270
Mg        14.00020        1.27130       15.59630
Mg        14.31700        1.26480       20.79100
Mg        17.31240        1.33350       15.47110
Mg        17.37300        1.41140       20.75240
Mg         9.28810        2.21110       13.05930
Mg         9.66090        2.38670       18.10680
Mg         7.68010        4.86220       13.12070
Mg         7.70810        4.83910       17.87950
Mg         9.52340        4.35350       15.44770
Mg         9.17510        4.13490       20.75790
Mg         7.69420        6.88380       15.50890
Mg         7.77040        6.87040       20.76710
Mg        12.44080        2.13180       13.06340
Mg        12.56610        2.49750       18.17990
Mg        10.76370        5.02770       12.58690
Mg        10.74330        5.29910       18.21450
Mg        15.78530        2.09620       12.74070
Mg        15.88680        2.23350       18.07340
Mg        14.15510        4.89150       13.00640
Mg        14.08790        5.08960       18.12570
Mg        12.42030        4.07920       15.46680
Mg        12.59340        4.06660       20.62340
Mg        10.97910        7.14390       15.53650
Mg        11.01450        6.81180       20.85850
Mg        15.49010        3.83390       15.52480
Mg        15.81140        4.15430       20.80260
Mg        14.22630        6.76460       15.52780
Mg        14.12440        6.92050       20.76580
O         15.84040        6.01770       21.74170
H         15.73450        6.01890       22.73280
O          9.30650        5.84470       21.74680
H          9.21550        5.79010       22.74320
O         12.62410        5.89620       21.76300
H         12.80040        5.55100       22.65710
O         18.94920        0.45450       21.92380
H         19.10590        0.12100       22.87410
O         17.33040        3.15970       21.76680
H         17.13520        2.89730       22.70620
O         12.57820        0.58810       21.86640
H         12.85880        0.75970       22.78140
O         10.82480        3.39100       21.61010
H         10.92430        3.14350       22.56630
O         15.83730        0.24520       21.64870
H         15.80670        0.05930       22.62200
O         14.17180        3.07850       21.71710
H         14.24560        2.99600       22.68960
O         12.06500        5.67930       24.96030
H         12.11850        5.47390       25.94530
H         11.29840        6.20600       24.71660
O         14.10460        2.10750       24.61100
H         14.63420        2.76280       25.18470
H         14.71020        1.32280       24.38590
O         15.68530       -0.05970       24.63960
H         16.52670        0.28310       25.03630
H         14.99480        0.16360       26.20570
O         13.43070       -1.32540       24.17380
H         14.33210       -0.98930       24.33090
H         13.17930       -1.74600       25.02500
O          5.99630        6.02170       24.23610
H          5.71870        5.15270       24.62330
H          6.95140        6.19750       24.28660
O          5.36140        7.87770       31.08780
H          4.96790        8.74060       31.18830
H          4.57830        7.34540       31.39320
O         15.47840        6.09800       24.43720
H         14.92710        6.92000       24.53820
H         14.89400        5.38500       24.80730
O         11.44620        2.56980       24.69840
H         11.59510        3.55250       24.83040
H         12.40720        2.29340       24.80640
O          0.75510        8.47670       25.25090
H          0.56080        8.90780       26.08670
H          1.61680        8.05680       25.24460
O          9.91110        0.37390       24.46620
H          9.84600       -0.30470       25.18110
H         10.70660        0.89040       24.58340
O          8.62120       11.83440       29.61630
H          8.60220       11.12070       28.88250
H          7.72280       12.20580       29.76720
O         16.21140        3.63470       25.82420
H         15.89260        3.71300       26.77250
H         16.88160        2.90720       25.72160
O          9.43700        9.59460       31.09890
H          8.98630        9.56530       31.95480
H          9.10260       10.42390       30.66210
O         16.77040        0.28930       30.98810
H         17.08540        1.17210       30.50480
H         16.71200       -0.26200       30.14110
O         10.72230        2.87220       27.71780
H         10.75790        2.67670       26.73320
H         11.01030        3.90380       27.65740
O          8.44730        3.53440       24.53000
H          9.24960        3.02150       24.70460
H          7.76760        3.26840       25.14630
O         15.99080        4.19670       28.44010
H         16.39510        4.88580       29.04110
H         15.27900        3.86280       28.99260
O         15.80700       -0.37230       34.85240
H         16.01150       -0.47900       35.82620
H         14.93690       -0.82300       34.66290
O          2.48130        2.50130       25.91860
H          2.84980        1.57420       26.08030
H          2.81800        2.98510       26.69020
O          8.25990        4.73730       33.65790
H          8.17390        3.79420       33.87140
H          8.54300        4.91450       32.72190
O          5.17180        0.14520       28.51420
H          6.11170        0.03190       28.17080
H          4.59130        0.14060       27.68850
O          8.25710        4.98240       30.83680
H          8.03430        5.93700       30.52240
H          9.21110        4.77230       30.60060
O         13.24750        4.78360       28.71520
H         12.99760        4.60590       29.61980
H         12.44110        5.19020       28.30390
O         15.87200        4.36120       31.63210
H         15.56080        5.26980       31.73560
H         15.09210        3.78150       31.65640
O         11.63410        0.99930       35.42330
H         11.87290        1.96300       35.37880
H         12.33130        0.62120       35.97410
O         17.75730        2.54490       30.25490
H         17.86790        2.71070       29.31040
H         17.15420        3.21270       30.61520
O          8.36960        1.80890       32.88930
H          9.35880        1.96760       32.66400
H          8.34860        0.86650       33.10950
O         15.21850        2.53160       35.36460
H         15.96590        3.12870       35.10890
H         15.52120        1.61910       35.14270
Mg        -3.40800        7.85590        7.80990
Mg        -3.52960        9.60570       10.38340
Mg        -0.31780        7.76510        7.54240
Mg         2.59180        7.83730        7.99050
Mg        -0.30020        9.60670       10.84790
Mg         2.99790        9.65600       10.80650
Mg        -5.02120       10.52970        7.73940
Mg        -6.73510       13.32330        7.95180
Mg        -5.15660       12.38590       10.61840
Mg        -6.81020       14.99110       10.67690
Mg        -1.70840       10.62230        7.97300
Mg        -3.47230       13.16550        7.73700
Mg         1.21710       10.41370        8.17600
Mg        -0.40230       13.41390        7.73800
Mg        -2.10730       12.35290       10.52610
Mg        -3.57610       15.06420       10.55420
Mg         1.27140       12.39370       10.75310
Mg        -0.36220       15.02820       10.56020
Mg        -3.53580        7.84900       12.96340
Mg        -3.42950        7.80790       18.22140
Mg        -3.56160        9.64740       15.46110
Mg        -3.63410        9.79520       20.98010
Mg        -0.37940        7.74920       13.29090
Mg        -0.44370        8.09340       18.22030
Mg         2.95060        7.82220       13.20900
Mg         3.05780        7.61810       18.26460
Mg        -0.46230        9.60370       15.52400
Mg        -0.32170        9.81340       20.94690
Mg         2.61750        9.81950       15.82860
Mg         2.88860        9.77210       21.24400
Mg        -5.03620       10.64890       12.86220
Mg        -5.01870       10.73250       18.04680
Mg        -6.50720       13.38780       13.26470
Mg        -6.61520       13.44980       18.22740
Mg        -5.07520       12.42500       15.52840
Mg        -5.00460       12.62420       21.00080
Mg        -6.73390       15.25560       15.69470
Mg        -6.64210       15.24920       20.83810
Mg        -1.96820       10.44890       13.01770
Mg        -1.80540       10.47290       18.08610
Mg        -3.35030       13.56060       13.17600
Mg        -3.57470       13.65260       18.29680
Mg         1.45880       10.63310       13.35120
Mg         1.27560       10.65570       18.59640
Mg        -0.33800       13.35670       13.18550
Mg        -0.34110       13.39480       18.24980
Mg        -1.85100       12.37350       15.55710
Mg        -1.86780       12.70500       20.91830
Mg        -3.58930       15.24380       15.60390
Mg        -3.52720       15.23100       20.96850
Mg         1.11060       12.51970       15.88480
Mg         1.49970       12.57920       21.18980
Mg        -0.47340       15.28300       15.44540
Mg        -0.16140       15.29520       21.27060
O          1.47770       14.45900       22.18860
H          1.68160       14.42530       23.13290
O         -5.18970       14.34210       21.96830
H         -5.31810       14.28550       22.93870
O         -1.83680       14.44850       22.03150
H         -1.93910       14.33130       22.99250
O          4.56460        8.80270       21.73680
H          4.75560        8.80850       22.70580
O          2.96070       11.70060       22.11630
H          2.83850       11.70170       23.10740
O         -1.90190        8.88080       22.06900
H         -1.98250        8.98540       23.02980
O         -3.32550       11.68050       21.82280
H         -3.51280       11.67140       22.78300
O          1.40200        8.74320       21.87200
H          1.13050        8.65860       22.80220
O         -0.20990       11.68180       21.82920
H         -0.38520       11.44260       22.75760
O         -2.21120       10.33040       28.29280
H         -1.56850        9.88770       27.67850
H         -3.11800       10.27900       27.84750
O         -0.15100       15.15190       26.63730
H          0.42800       15.51810       27.34770
H         -0.72730       14.40340       27.07070
O          2.71680        6.75480       24.09380
H          2.61310        6.15270       24.82340
H          3.58060        7.28810       24.25280
O          2.73320       11.01330       25.02240
H          3.13400       10.49860       25.78250
H          1.92440       10.49480       24.81290
O         -1.32920        6.21750       26.05120
H         -1.63560        7.05250       25.62610
H         -1.96410        5.49010       25.81130
O         -0.86180       11.48510       25.44230
H         -1.31650       12.30780       25.15970
H         -0.53260       11.48230       26.37140
O          4.82230       14.93780       30.09920
H          3.81480       14.65680       30.02070
H          4.85130       15.40010       29.27230
O         -4.46840       11.42250       24.51650
H         -5.28660       11.98040       24.46780
H         -4.50060       11.12910       25.51460
O         -6.58860       11.96750       28.84740
H         -6.01960       12.72420       29.12660
O         -2.38710        9.02300       25.26340
H         -1.90910        9.89340       25.47410
H         -3.32270        9.09730       25.59370
O          1.69760       13.53320       25.17500
H          1.74510       12.58070       25.39350
H          0.89310       14.00540       25.55980
O          4.30080        9.39390       26.87710
H          3.75810        8.88540       27.62150
H          4.72160       10.21350       27.32370
O          5.33520        5.93620       27.32710
H          5.10280        6.33130       28.20570
H          5.84780        5.11460       27.60930
O          0.28680       15.45870       30.43130
H         -0.55350       14.90960       30.35460
H          0.17560       16.27280       29.86010
O          5.95590       11.71230       24.94090
H          5.84780       11.68860       25.95480
H          5.20910       11.18330       24.60850
O         -0.64130        6.35920       36.06990
H         -0.94760        7.22270       36.42780
H          0.11390        6.63540       35.51690
O         -2.41560       14.81400       33.04910
H         -3.26370       14.42350       33.39310
H         -1.74340       14.13100       33.28580
O          2.09680        9.32910       30.55840
H          2.87710        9.86150       30.83460
H          2.03080        8.70420       31.28990
O         -0.62050       10.15270       30.69400
H          0.32610        9.94770       30.38750
H         -1.25420       10.06580       29.96950
O          3.14080        7.68230       28.47330
H          2.20910        7.44090       28.22860
H          3.02510        8.27530       29.26060
O          8.05050        7.45230       29.97540
H          7.13850        7.71870       29.94040
H          8.43820        8.23450       30.46460
O          1.43780       11.18850       35.98560
H          0.92720       10.39410       36.27890
H          0.82590       11.49060       35.33980
O         -4.80460       11.53770       35.37540
H         -4.53050       10.78950       34.80970
H         -5.78080       11.49550       35.26560
O          3.80590        2.61750       28.68910
H          4.58450        2.04760       28.45520
H          3.16460        1.92140       29.07050
O         -2.00950        4.09630       34.06680
H         -2.48690        4.65610       33.40860
H         -1.68320        4.72630       34.70650
O         -6.19980       12.50970       32.07870
H         -5.94170       13.10850       32.87440
H         -5.42370       11.93200       31.97080
O          3.54110       11.86660       34.27310
H          3.02990       11.43360       34.97370
H          4.55180       11.59200       34.23360
O          4.53760       10.46610       31.30770
H          5.01290       10.99110       30.61540
H          4.62870       10.95060       32.16320
Mg         6.07130        7.62740        7.78000
Mg         6.11820        9.60760       10.67670
Mg         9.57010        7.94190        7.76200
Mg        12.66920        7.67430        7.63810
Mg         9.23580        9.82400       10.46450
Mg        12.38400        9.45410       10.53380
Mg         4.24650       10.40790        8.00400
Mg         2.77530       13.21900        7.89950
Mg         4.31660       12.30730       10.64740
Mg         2.85680       15.11160       10.24500
Mg         7.68250       10.42120        7.98180
Mg         5.95420       13.26210        7.75520
Mg        11.23270       10.49890        7.74500
Mg         9.00960       13.22530        7.91830
Mg         7.67830       12.49830       10.43960
Mg         5.87640       15.01860       10.28110
Mg        10.84370       12.48700       10.39740
Mg         9.37270       15.17740       10.39040
Mg         6.40820        7.77910       12.94460
Mg         6.08830        7.60020       18.16460
Mg         6.25490        9.58640       15.66450
Mg         6.12670        9.66330       20.88260
Mg         9.22770        7.83120       13.14380
Mg         9.19430        7.90660       18.27800
Mg        12.41500        7.80770       12.93520
Mg        12.51710        7.68440       18.26130
Mg         9.40540        9.76250       15.54830
Mg         9.42510        9.59680       20.74960
Mg        12.54900        9.63500       15.54800
Mg        12.57480        9.54000       20.69110
Mg         4.52270       10.70280       13.07760
Mg         4.60050       10.61620       18.17690
Mg         2.92960       13.52780       13.41480
Mg         2.84340       13.34220       18.33550
Mg         4.51840       12.21710       15.74060
Mg         4.62700       12.44770       20.95300
Mg         2.71660       15.16120       15.92080
Mg         2.97360       15.32960       21.00640
Mg         7.71770       10.89140       13.04200
Mg         7.87710       10.53740       18.28610
Mg         6.10430       13.53890       13.19310
Mg         6.19210       13.17600       18.09330
Mg        10.89520       10.77310       13.09220
Mg        11.02380       10.43970       18.03820
Mg         9.38860       13.56090       13.20940
Mg         9.54690       13.62790       18.05000
Mg         7.91070       12.53670       15.55530
Mg         7.78650       12.36410       20.73110
Mg         6.01520       15.17390       15.54490
Mg         6.14270       15.07730       20.69430
Mg        11.05600       12.42220       15.59860
Mg        11.08900       12.46540       20.69750
Mg         9.31900       15.37950       15.57950
Mg         9.50720       15.30710       20.77920
O         11.09230       14.37670       21.73970
H         11.08210       14.44500       22.70550
O          4.57250       14.30970       21.74170
H          4.37770       14.34450       22.71320
O          7.68790       14.26640       21.51800
H          7.54800       14.25110       22.49210
O         14.26590        8.65240       21.80070
H         14.21780        8.65860       22.78880
O         12.64240       11.56260       21.59790
H         12.60450       11.25400       22.53810
O          7.76390        8.75800       21.68410
H          7.94270        8.78810       22.64190
O          6.19670       11.60820       21.82880
H          6.42410       11.57780       22.77890
O         11.00580        8.74370       21.76010
H         11.15330        8.70710       22.77340
O          9.47460       11.62460       21.64160
H          9.42100       11.65830       22.58120
O          8.05900       13.61330       26.48920
H          7.35010       13.04330       26.92140
H          7.75170       13.65380       25.50170
O         12.06760       10.04040       30.37840
H         12.70860       10.00360       31.11210
H         11.16630        9.77450       30.84730
O          6.77450       14.22320       24.15650
H          6.51440       15.17500       24.34950
H          6.07590       13.60250       24.53520
O          8.66650        6.70140       24.29680
H          8.83750        6.62320       25.26730
H          8.96190        7.64030       24.14190
O          7.60540        9.75440       24.31340
H          7.32560        9.14110       25.04100
H          7.03200       10.54760       24.52620
H          2.66440       13.26940       26.78540
O         10.83580       13.01110       26.67400
H         11.15690       12.39340       27.35120
H          9.86140       13.14590       26.70110
O         10.84000        8.77410       24.64260
H         10.58520        9.74010       24.60580
H         11.06320        8.56100       25.55260
O          9.89410       11.53750       24.40290
H         10.21220       11.98300       25.23980
H          9.00590       11.12320       24.61010
O          6.92580        8.42510       27.03940
H          6.08260        8.94450       27.25220
H          6.65200        7.51830       26.80120
O          1.62840       12.01740       32.22950
H          2.37060       12.00420       32.87440
H          1.94630       12.59940       31.49920
O          2.82890       12.73690       27.59410
H          5.48610       11.53840       27.23030
H          3.65220       12.21710       27.46770
O          2.39060       13.70070       30.05720
H          1.67920       14.41240       30.03440
H          2.60890       13.44310       29.07400
O          9.58320       15.35610       30.15670
H          9.86690       14.47840       30.57980
H          8.74740       15.07840       29.68140
O         14.72230        6.61740       32.62940
H         13.80890        6.90150       32.28180
H         14.66560        6.28170       33.54680
O         11.33640        7.09040       31.96450
H         11.10180        7.38770       31.02180
H         10.54880        7.02920       32.57490
O          4.66570        8.56900       34.97650
H          5.26190        8.01160       34.47550
H          4.47210        7.99160       35.78110
O         10.16160       10.00900       36.06240
H          9.72420       10.12690       36.91450
H         10.68510        9.19170       36.14540
O          9.13640        9.89350       27.95790
H          8.43910        9.23330       27.61550
H         10.01800        9.43410       28.07230
O         12.29610        4.36420       32.19100
H         11.73050        5.14340       31.96100
H         11.71970        3.61540       31.91110
O         12.31170        7.90720       35.51140
H         12.37310        8.38340       34.62380
H         12.99140        7.21980       35.54850
O         -0.80070        8.97780       34.06790
H         -1.76560        9.17480       34.12430
H         -0.37760        9.59730       33.42450
H         -6.63610       11.32320       29.55750
